tests/data/power_flow/pandapower/components/asymmetric/asym_gen/asym_output.json
{
  "version": "1.0",
  "type": "asym_output",
  "is_batch": false,
  "attributes": {},
  "data": {
    "asym_gen": [
      {
        "id": 6,
        "p": [
          10000.0,
          9000.0,
          10499.999999999998
        ],
        "q": [
          2000.0,
          1500.0,
          2500.0
        ]
      },
      {
        "id": 7,
        "p": [
          0.0,
          0.0,
          0.0
        ],
        "q": [
          0.0,
          0.0,
          0.0
        ]
      }
    ],
    "line": [
      {
        "id": 3,
        "p_from": [
          -9998.908849009415,
          -8999.089253470991,
          -10498.784558973424
        ],
        "q_from": [
          -13545.753861135205,
          -13045.788227944875,
          -14045.725115436457
        ],
        "i_from": [
          2.7772919117223864,
          2.614330979989706,
          2.8926689943948127
        ],
        "p_to": [
          9999.999998059127,
          9000.000013757213,
          10499.9999862597
        ],
        "q_to": [
          1999.9999988464376,
          1500.0000056774452,
          2499.999993466253
        ],
        "i_to": [
          1.6820545966140024,
          1.5049416977525214,
          1.780261182669237
        ]
      }
    ],
    "node": [
      {
        "id": 1,
        "u_pu": [
          1.0,
          0.9999999999999999,
          0.9999999999999999
        ],
        "u": [
          6062.177826491071,
          6062.17782649107,
          6062.17782649107
        ],
        "u_angle": [
          5.472096503346787e-18,
          -2.0943951023931953,
          2.0943951023931953
        ]
      },
      {
        "id": 2,
        "u_pu": [
          1.000110322251095,
          1.0001007998547864,
          1.0001164436973098
        ],
        "u": [
          6062.846619595427,
          6062.788893135671,
          6062.883728890937
        ],
        "u_angle": [
          1.5375835610660367e-06,
          -2.0943956046576977,
          2.094395959293637
        ]
      }
    ]
  }
}
